%chk=ETN3_ESP.chk
%mem=10GB
#p hf/6-31g(d) pop=mk iop(6/33=2, 6/42=6) scf=tight

EtN3_ESP

0 1
 N                  1.34785429   -0.11386255   -0.00001600
 N                  2.46325123    0.11795946    0.00010908
 C                 -0.87957273    0.52306938   -0.00007352
 H                 -0.77761542    1.17295314    0.88947189
 H                 -0.77780204    1.17284549   -0.88972085
 C                 -2.23326355   -0.16770587    0.00010021
 H                 -2.34565828   -0.80507342   -0.89007667
 H                 -2.34548659   -0.80496659    0.89037525
 N                  0.18412997   -0.49636609   -0.00014203
 H                 -3.04306844    0.57794462    0.00013284

